data_
_chemical_name_mineral ??
_cell_length_a  20.11687(50)
_cell_length_b  19.93643(47)
_cell_length_c  13.43932(46)
_cell_angle_alpha 90
_cell_angle_beta  90
_cell_angle_gamma 90
_cell_volume 5389.96(26)
_symmetry_space_group_name_H-M 'P n m a'
loop_
_symmetry_equiv_pos_as_xyz
	'-x, -y, -z'
	'-x, y+1/2, -z'
	'-x+1/2, -y, z+1/2'
	'-x+1/2, y+1/2, z+1/2'
	'x, -y+1/2, z'
	'x, y, z'
	'x+1/2, -y+1/2, -z+1/2'
	'x+1/2, y, -z+1/2'
loop_
_atom_site_label
_atom_site_type_symbol
_atom_site_symmetry_multiplicity
_atom_site_fract_x
_atom_site_fract_y
_atom_site_fract_z
_atom_site_occupancy
_atom_site_B_iso_or_equiv
Si_1 Si   8 0.4361204 0.05788374 -0.3365929 1.000893 1
Si_2 Si   8 0.3077004 0.03009815 -0.1798397 1.000339 1
Si_3 Si   8 0.2754755 0.05771899 0.04591255 1 1
Si_4 Si   8 0.1173666 0.06565655 0.0241043 1 1
Si_5 Si   8 0.07475632 0.02918101 -0.1811106 1 1
Si_6 Si   8 0.1802191 0.04409685 -0.313203 1 1
Si_7 Si   8 0.4362155 -0.1741623 -0.3115495 1 1
Si_8 Si   8 0.305006 -0.1320879 -0.1781964 1 1
Si_9 Si   8 0.2700407 -0.1803873 0.02641844 1 1
Si_10 Si   8 0.1148815 -0.1577345 0.02668573 1 1
Si_11 Si   8 0.07632529 -0.1321274 -0.1798697 1 1
Si_12 Si   8 0.181706 -0.1711256 -0.3003512 1 1
O_1 O   8 0.3736634 0.05474097 -0.2517155 1 1
O_2 O   8 0.3089144 0.06441649 -0.08768136 1 1
O_3 O   8 0.1971963 0.05823246 0.02158456 1 1
O_4 O   8 0.09243019 0.07033129 -0.0854963 1 1
O_5 O   8 0.1227973 0.06137122 -0.26184 1 1
O_6 O   8 0.2462377 0.05472233 -0.255423 1 1
O_7 O   8 0.3637745 -0.1498278 -0.2403561 1 1
O_8 O   8 0.3037339 -0.1479752 -0.06801612 1 1
O_9 O   8 0.1952662 -0.1529792 0.02832273 1 1
O_10 O   8 0.09340599 -0.1567339 -0.08583662 1 1
O_11 O   8 0.1148575 -0.1592812 -0.2577508 1 1
O_12 O   8 0.2418402 -0.1564447 -0.2421199 1 1
O_13 O   8 0.2964506 -0.04937774 -0.1762926 1 1
O_14 O   8 0.08736121 -0.04496618 -0.1781657 1 1
O_15 O   8 0.4202253 0.1342734 -0.3819563 1 1
O_16 O   8 0.4066282 -0.008901379 -0.4209859 1 1
O_17 O   8 0.3986517 -0.1253468 -0.4080604 1 1
O_18 O   8 0.1923713 0.1281482 -0.3755211 1 1
O_19 O   8 0.1766874 -0.002959244 -0.3998525 1 1
O_20 O   8 0.1972495 -0.1341687 -0.4184717 1 1
O_21 O   8 -0.00600617 0.04456516 -0.2088095 1 1
O_22 O   8 -0.0003713536 -0.1463317 -0.2066132 1 1
O_23 O   4 0.4203913 -0.25 -0.3644174 1 1
O_24 O   4 0.2043159 -0.25 -0.360244 1 1
O_25 O   4 0.2865632 -0.25 0.05288 1 1
O_26 O   4 0.1077033 -0.25 0.05299782 1 1